/*--------------------------------*- C++ -*----------------------------------*\
| =========                 |                                                 |
| \\      /  F ield         | OpenFOAM: The Open Source CFD Toolbox           |
|  \\    /   O peration     | Version:  v2212                                 |
|   \\  /    A nd           | Website:  www.openfoam.com                      |
|    \\/     M anipulation  |                                                 |
\*---------------------------------------------------------------------------*/
FoamFile
{
    version     2.0;
    format      ascii;
    class       dictionary;
    object      fvSolution;
}
// * * * * * * * * * * * * * * * * * * * * * * * * * * * * * * * * * * * * * //

solvers
{
    p
    {
        solver          GAMG;
        smoother        GaussSeidel;
        tolerance       1e-09;
        relTol          0.1;
    }

    "(U|nuTilda)"
    {
        solver          smoothSolver;
        smoother        GaussSeidel;
        tolerance       1e-09;
        relTol          0.1;
    }

//    nuTilda
//    {
//        solver          smoothSolver;
//        smoother        GaussSeidel;
//        nSweeps         2;
//        tolerance       1e-08;
//        relTol          0.1;
//    }
}

SIMPLE
{
    nNonOrthogonalCorrectors 0;

    residualControl
    {
        p               1e-9;
        U               1e-9;
        nuTilda         1e-9;
    }
    pRefValue 183127;
}

relaxationFactors
{
    fields
    {
        p               0.3;
    }
    equations
    {
        U               0.7;
        nuTilda         0.7;
    }
}


// ************************************************************************* //
